@<TRIPOS>MOLECULE
Fukui flat z=0 from /home/prokop/SIMULATIONS/Fukui_AFM/pyscf_fukui_cluster/benzoicacid_dimer_PBE_def2-SVP/rho_N.cube
 15 15 0 0 0
SMALL
GASTEIGER

@<TRIPOS>ATOM
      1 O           1.3306    5.8861    0.0000 O.3     1  UNL1       -0.4771
      2 H           2.3007   10.6244    0.0000 H       1  UNL1        0.0618
      3 C           0.1373    6.4795    0.0000 C.2     1  UNL1        0.3368
      4 O          -0.9208    5.8209    0.0000 O.2     1  UNL1       -0.2451
      5 H          -1.9937    8.1251    0.0000 H       1  UNL1        0.0626
      6 H           1.2336    4.8877    0.0000 H       1  UNL1        0.2954
      7 H           0.1478   11.8626    0.0000 H       1  UNL1        0.0618
      8 H           2.3044    8.1398    0.0000 H       1  UNL1        0.0626
      9 H          -2.0026   10.6180    0.0000 H       1  UNL1        0.0618
     10 C          -1.0587    8.6817    0.0000 C.ar    1  UNL1       -0.0478
     11 C           0.1533    7.9719    0.0000 C.ar    1  UNL1        0.0588
     12 C           1.3636    8.6857    0.0000 C.ar    1  UNL1       -0.0478
     13 C           1.3592   10.0790    0.0000 C.ar    1  UNL1       -0.0610
     14 C           0.1487   10.7747    0.0000 C.ar    1  UNL1       -0.0617
     15 C          -1.0600   10.0748    0.0000 C.ar    1  UNL1       -0.0610
@<TRIPOS>BOND
     1    10     5    1
     2    14    15   ar
     3    10    15   ar
     4    14     7    1
     5    15     9    1
     6    11     3    1
     7    10    11   ar
     8    11    12   ar
     9    12    13   ar
    10    13    14   ar
    11    12     8    1
    12    13     2    1
    13     3     1    1
    14     3     4    2
    15     1     6    1
